/*--------------------------------*- C++ -*----------------------------------*\
| =========                 |                                                 |
| \\      /  F ield         | OpenFOAM: The Open Source CFD Toolbox           |
|  \\    /   O peration     | Version:  v2406                                 |
|   \\  /    A nd           | Website:  www.openfoam.com                      |
|    \\/     M anipulation  |                                                 |
\*---------------------------------------------------------------------------*/
FoamFile
{
    version     2.0;
    format      ascii;
    class       volScalarField;
    object      p_rgh;
}
// * * * * * * * * * * * * * * * * * * * * * * * * * * * * * * * * * * * * * //

dimensions      [1 -1 -2 0 0 0 0];

internalField   uniform 0;

boundaryField
{
    inlet
    {
        /*
        type            totalPressure;
        p0              uniform 2000;
        */
        type            fixedValue;
        value           uniform 2000;
    }
    outlet
    {
        type            fixedValue;
        value           uniform 1000;
    }
    lowerWall
    {
        type            fixedFluxPressure;
        value           uniform 0;
    }
    backWall
    {
        type            fixedFluxPressure;
        value           uniform 0;
    }
    frontWall
    {
        type            fixedFluxPressure;
        value           uniform 0;
    }    
    topWall
    {
        type            fixedFluxPressure;
        value           uniform 0;
    }
}


// ************************************************************************* //
