/*--------------------------------*- C++ -*----------------------------------*\
| =========                 |                                                 |
| \\      /  F ield         | OpenFOAM: The Open Source CFD Toolbox           |
|  \\    /   O peration     | Version:  v2312                                 |
|   \\  /    A nd           | Website:  www.openfoam.com                      |
|    \\/     M anipulation  |                                                 |
\*---------------------------------------------------------------------------*/
FoamFile
{
    version     2.0;
    format      ascii;
    class       dictionary;
    object      kinematicBubbleCloudProperties;
}
// * * * * * * * * * * * * * * * * * * * * * * * * * * * * * * * * * * * * * //

bubbleProperties
{
    //- ML: flag for activation of bubble dynamics
    bubble_activation       false;
    //- ML: surface tension for bubble dynamics
    bubbleSigma             0.07;
    //- ML: initial pressure for bubble dynamics
    p0                      101325;
    //- ML: initial radius for bubble dynamics            
    R0                      1e-06;
    //- ML: vapour pressure for bubble dynamics            
    pv                      2300;
    //- ML: time step for each loop of RP solver-important
    RPdT                    5.0e-6; //1.0e-7 ; 
    //- ML: kappa isotropic value for bubble dynamics            
    bubbleKappa             1.4;
    //- ML: Averaging distance for bubble dynamics
    averagingDistance       5;//5;
    //- ML: ODE solver type for bubble dynamics
    ODESolverType           RKF45;
}

Transition_Algorithm
{
    //- ML: flag for activation of EulerianToLagrangian
    EulerianToLagrangian_activation         true; 

    //- ML:Number of cells that trigger the transtion from Eulerian to Lagrangian
    EL_cellThreshold                        4;

    //- ML: Set threshold for tracking structures with alpha below this Threshold    
    EL_alphaThreshold                       0.999;

    //- ML: flag for activation of LagrangianToEulerian
    LagrangianToEulerian_activation         false;

    //- ML:sigma = bubbleRadius / deviation-> Gaussian standard deviation (for 99% volume within radius)
    LE_deviation                            3.0; 

    //- ML:Minimum liquid volume fraction value that lagrangian cell can occupy
    LE_minCellOccupancy                     0.3;
    
    //- ML:Number of cells that trigger the transtion from Lagrangian to Eulerian
    LE_cellThreshold                        44;

    //- ML: Set threshold for interface proximity that trigger the transtion from Lagrangian to Eulerian
    LE_alphaThreshold                       0.5;

    //- ML: Minimum bubble radius threshold that will be tracked
    LE_bubbleSizeThreshold                  5e-07;

    //- ML: Define the box boundaries for tracking- Only lagrangian inside this box will be tracked
    LE_boxCheckEnabled                      false;

    LE_boxTopLeftCorner                 (0.0 0.0 0.0);  // the top-left corner coordinates at the back face

    LE_boxBottomRightCorner             (1.0 1.0 1.0);  // the bottom-right corner coordinates at the front face
}

solution
{
    active          true;
    coupled         yes;
    transient       yes;
    cellValueSourceCorrection no;
    maxCo           0.2;

    sourceTerms
    {
        schemes
        {
            U               semiImplicit 1;
        }
    }

    interpolationSchemes
    {
        rho             cell;
        U               cellPoint;
        muc             cell;
        p               cell;
    }

    integrationSchemes
    {
        U               Euler;
    }
}

constantProperties
{
    //- ML: density of vapor bubble
    rho0            0.02308;
}

subModels
{
    particleForces
    {
        //sphereDrag;
        //gravity;
    }

    
    injectionModels
    {
    /*
        model1
        {
            type            patchInjection;
            patch           inlet;
            parcelBasisType fixed;
            parcelsPerSecond 10;
            nParticle      1;
            U0               (0 0 0);
            //velocityType    patchValue;
            //velocityType    zeroGradient;
            SOI             0;
            duration        1;
            massTotal       0;
            flowRateProfile constant 1;
            sizeDistribution
            {
                type        fixedValue;
                fixedValueDistribution
                {
                    value    0.02;//0.000007;//0.01;//0.0275;change of phase//0.007;
                }
            }
        }
	
        model1
        {
            type            manualInjection;
            massTotal       0;
            parcelBasisType fixed;
            nParticle       1;
            SOI             0.02;
            positionsFile   "kinematicBubbleCloudPositions";
            U0              (2 0 0);
            sizeDistribution
            {
                type        fixedValue;
                fixedValueDistribution
                {
                    value   0.001;//0.002;//0.0005;
                }
            }
        }
        */
    }
    
    dispersionModel none;

    patchInteractionModel standardWallInteraction;

    stochasticCollisionModel none;

    surfaceFilmModel none;

    standardWallInteractionCoeffs
    {
        type            rebound;
    }
}

cloudFunctions
{
    KinematicReynoldsNumber1
    {
        type    ReynoldsNumber;
    }

    KinematicWeberNumber1
    {
        type    WeberNumber;
        sigma   0.72;
    }
}

/*
cloudFunctions
{
    KinematicReynoldsNumber1
    {
        type    ReynoldsNumber;
    }

    KinematicWeberNumber1
    {
        type    WeberNumber;
        sigma   0.72;
    }

    particlePostProcessing1
    {
        type            particlePostProcessing;
        maxStoredParcels 100000000;
        patches         ( outlet );
    }

    particleTracks1
    {
        type            particleTracks;
        trackInterval   1;
        maxSamples      1000000;
        resetOnWrite    yes;
    }
    
    particleZoneInfo1
    {
        type            particleZoneInfo;
        cellZone        outlet;
        writer          vtk;
    }
    
    particleHistogram1
    {
        type            particleHistogram;
        patches
        (
            outlet
        );
        nBins            10;
        min              0.0000001;
        max              0.000045;
        maxStoredParcels 100000000;
    }
 
    facePostProcessing1
    {
        type            facePostProcessing;
        surfaceFormat   vtk;
        resetOnWrite    no;
        log             yes;

        faceZones
        (
            outlet
        );
    }
    
}
*/
// ************************************************************************* //
